Circuit: * F:\PT8616\spice_lite\single_ended_ltc_driver.asc

Direct Newton iteration for .op point succeeded.

Date: Mon Aug 23 12:08:43 2010
Total elapsed time: 0.114 seconds.

tnom = 27
temp = 27
method = trap
totiter = 10
traniter = 0
tranpoints = 0
accept = 0
rejected = 0
matrix size = 118
fillins = 88
solver = Normal
Matrix Compiler1:     420 opcodes
Matrix Compiler2: 9,50 KB object code size

