Release 4.2WP3.x - Par E.38
Copyright (c) 1995-2001 Xilinx, Inc.  All rights reserved.

Mon Feb 09 12:55:42 2004

Xilinx PAD Specification File
*****************************

Input file:       par_temp.ncd
Output file:      fpga_debug.ncd
Part type:        xc2s300e
Speed grade:      -6
Package:          fg456

Pinout by Signal Name:
--------------------------|-----------------|--------|-----------|-------------|----------|----------|------|----------|-----------|---------|-----------|
       Signal Name        |    Pin Name     | Pin    | Direction | IO Standard |IO Bank # |Drive (mA)| Slew | Pullup   | IOB Delay | Voltage |Constraint |
                          |                 | Number |           |             |          |          | Rate | Pulldown |           |         |           |
--------------------------|-----------------|--------|-----------|-------------|----------|----------|------|----------|-----------|---------|-----------|
 ao12                     |                 | R2     | INPUT     | LVTTL       | 6        | 12*      | SLOW*| NONE**   | NONE      |         | LOCATED   |
 ao34                     |                 | R1     | INPUT     | LVTTL       | 6        | 12*      | SLOW*| NONE**   | NONE      |         | LOCATED   |
 ao56 (L96P)              | L96P            | T2     | INPUT     | LVTTL       | 6        | 12*      | SLOW*| NONE**   | NONE      |         | LOCATED   |
 ao78                     |                 | T1     | INPUT     | LVTTL       | 6        | 12*      | SLOW*| NONE**   | NONE      |         | LOCATED   |
 aouta (L8P)              | L8P             | F9     | INPUT     | LVTTL       | 0        | 12*      | SLOW*| NONE**   | NONE      |         | LOCATED   |
 aoutb                    |                 | F10    | INPUT     | LVTTL       | 0        | 12*      | SLOW*| NONE**   | NONE      |         | LOCATED   |
 buferr                   |                 | J6     | INPUT     | LVTTL       | 7        | 12*      | SLOW*| NONE**   | NONE      |         | LOCATED   |
 crc_err                  |                 | N1     | INPUT     | LVTTL       | 6        | 12*      | SLOW*| NONE**   | NONE      |         | LOCATED   |
 cs_f (CS_L28P_YY)        | CS_L28P_YY      | B20    | INPUT     | LVTTL       | 1        | 12*      | SLOW*| NONE**   | NONE      |         | LOCATED   |
 din<0> (LVDS_DLL_L13P)   | LVDS_DLL_L13P   | A12    | OUTPUT    | LVTTL       | 1        | 12       | SLOW | NONE**   | ***       |         | LOCATED   |
 din<10> (L25N_YY)        | L25N_YY         | A17    | OUTPUT    | LVTTL       | 1        | 12       | SLOW | NONE**   | ***       |         | LOCATED   |
 din<11> (L25P_YY)        | L25P_YY         | B17    | OUTPUT    | LVTTL       | 1        | 12       | SLOW | NONE**   | ***       |         | LOCATED   |
 din<12>                  |                 | A18    | OUTPUT    | LVTTL       | 1        | 12       | SLOW | NONE**   | ***       |         | LOCATED   |
 din<13> (VREF)           | VREF            | B18    | OUTPUT    | LVTTL       | 1        | 12       | SLOW | NONE**   | ***       |         | LOCATED   |
 din<14>                  |                 | A19    | OUTPUT    | LVTTL       | 1        | 12       | SLOW | NONE**   | ***       |         | LOCATED   |
 din<15>                  |                 | B19    | OUTPUT    | LVTTL       | 1        | 12       | SLOW | NONE**   | ***       |         | LOCATED   |
 din<16> (WRITE_L28N_YY)  | WRITE_L28N_YY   | A20    | OUTPUT    | LVTTL       | 1        | 12       | SLOW | NONE**   | ***       |         | LOCATED   |
 din<17>                  |                 | C12    | OUTPUT    | LVTTL       | 1        | 12       | SLOW | NONE**   | ***       |         | LOCATED   |
 din<18>                  |                 | F13    | OUTPUT    | LVTTL       | 1        | 12       | SLOW | NONE**   | ***       |         | LOCATED   |
 din<19>                  |                 | F14    | OUTPUT    | LVTTL       | 1        | 12       | SLOW | NONE**   | ***       |         | LOCATED   |
 din<1>                   |                 | B12    | OUTPUT    | LVTTL       | 1        | 12       | SLOW | NONE**   | ***       |         | LOCATED   |
 din<2>                   |                 | A13    | OUTPUT    | LVTTL       | 1        | 12       | SLOW | NONE**   | ***       |         | LOCATED   |
 din<3> (VREF)            | VREF            | B13    | OUTPUT    | LVTTL       | 1        | 12       | SLOW | NONE**   | ***       |         | LOCATED   |
 din<4>                   |                 | A14    | OUTPUT    | LVTTL       | 1        | 12       | SLOW | NONE**   | ***       |         | LOCATED   |
 din<5>                   |                 | B14    | OUTPUT    | LVTTL       | 1        | 12       | SLOW | NONE**   | ***       |         | LOCATED   |
 din<6>                   |                 | A15    | OUTPUT    | LVTTL       | 1        | 12       | SLOW | NONE**   | ***       |         | LOCATED   |
 din<7>                   |                 | B15    | OUTPUT    | LVTTL       | 1        | 12       | SLOW | NONE**   | ***       |         | LOCATED   |
 din<8>                   |                 | A16    | OUTPUT    | LVTTL       | 1        | 12       | SLOW | NONE**   | ***       |         | LOCATED   |
 din<9>                   |                 | B16    | OUTPUT    | LVTTL       | 1        | 12       | SLOW | NONE**   | ***       |         | LOCATED   |
 error                    |                 | P1     | INPUT     | LVTTL       | 6        | 12*      | SLOW*| NONE**   | NONE      |         | LOCATED   |
 extf (TRDY)              | TRDY            | M1     | INPUT     | LVTTL       | 6        | 12*      | SLOW*| NONE**   | NONE      |         | LOCATED   |
 exth                     |                 | N2     | INPUT     | LVTTL       | 6        | 12*      | SLOW*| NONE**   | NONE      |         | LOCATED   |
 f1532 (L9P)              | L9P             | C9     | OUTPUT    | LVTTL       | 0        | 12       | SLOW | NONE**   | ***       |         | LOCATED   |
 f1560 (VREF)             | VREF            | C5     | INPUT     | LVTTL       | 0        | 12*      | SLOW*| NONE**   | NONE      |         | LOCATED   |
 f_tp1                    |                 | Y1     | OUTPUT    | LVTTL       | 6        | 12       | SLOW | NONE**   | ***       |         | LOCATED   |
 f_tp2                    |                 | U2     | OUTPUT    | LVTTL       | 6        | 12       | SLOW | NONE**   | ***       |         | LOCATED   |
 f_tp3 (VREF)             | VREF            | U1     | INPUT     | LVTTL       | 6        | 12*      | SLOW*| NONE**   | NONE      |         | LOCATED   |
 h1532                    |                 | C10    | OUTPUT    | LVTTL       | 0        | 12       | SLOW | NONE**   | ***       |         | LOCATED   |
 h1560                    |                 | C6     | INPUT     | LVTTL       | 0        | 12*      | SLOW*| NONE**   | NONE      |         | LOCATED   |
 lock1560 (L9N)           | L9N             | D9     | INPUT     | LVTTL       | 0        | 12*      | SLOW*| NONE**   | NONE      |         | LOCATED   |
 operate                  |                 | P2     | INPUT     | LVTTL       | 6        | 12*      | SLOW*| NONE**   | NONE      |         | LOCATED   |
 pclk1532 (LVDS_DLL_L13N) | LVDS_DLL_L13N   | B11    | OUTPUT    | LVTTL       | 0        | 12       | SLOW | NONE**   | ***       |         | LOCATED   |
 pclk1560                 |                 | C11    | INPUT     | LVTTL       | 0        | 12*      | SLOW*| NONE**   | ***       |         | LOCATED   |
 pclkhd (L109N_YY)        | L109N_YY        | K6     | OUTPUT    | LVTTL       | 7        | 12       | SLOW | NONE**   | ***       |         | LOCATED   |
 pclksd (L4N)             | L4N             | E7     | OUTPUT    | LVTTL       | 0        | 12       | SLOW | NONE**   | ***       |         | LOCATED   |
 pin10                    |                 | V21    | OUTPUT    | LVTTL       | 3        | 12       | SLOW | NONE**   | ***       |         | LOCATED   |
 pin11                    |                 | U20    | OUTPUT    | LVTTL       | 3        | 12       | SLOW | NONE**   | ***       |         | LOCATED   |
 pin12 (VREF)             | VREF            | V22    | OUTPUT    | LVTTL       | 3        | 12       | SLOW | NONE**   | ***       |         | LOCATED   |
 pin13                    |                 | T19    | OUTPUT    | LVTTL       | 3        | 12       | SLOW | NONE**   | ***       |         | LOCATED   |
 pin14                    |                 | U21    | OUTPUT    | LVTTL       | 3        | 12       | SLOW | NONE**   | ***       |         | LOCATED   |
 pin15                    |                 | T20    | OUTPUT    | LVTTL       | 3        | 12       | SLOW | NONE**   | ***       |         | LOCATED   |
 pin16                    |                 | U22    | OUTPUT    | LVTTL       | 3        | 12       | SLOW | NONE**   | ***       |         | LOCATED   |
 pin17 (D6_L52P_Y)        | D6_L52P_Y       | R19    | OUTPUT    | LVTTL       | 3        | 12       | SLOW | NONE**   | ***       |         | LOCATED   |
 pin18 (VREF)             | VREF            | T21    | OUTPUT    | LVTTL       | 3        | 12       | SLOW | NONE**   | ***       |         | LOCATED   |
 pin19                    |                 | R20    | OUTPUT    | LVTTL       | 3        | 12       | SLOW | NONE**   | ***       |         | LOCATED   |
 pin20                    |                 | T22    | OUTPUT    | LVTTL       | 3        | 12       | SLOW | NONE**   | ***       |         | LOCATED   |
 pin21                    |                 | P19    | OUTPUT    | LVTTL       | 3        | 12       | SLOW | NONE**   | ***       |         | LOCATED   |
 pin22                    |                 | R21    | OUTPUT    | LVTTL       | 3        | 12       | SLOW | NONE**   | ***       |         | LOCATED   |
 pin23                    |                 | P20    | OUTPUT    | LVTTL       | 3        | 12       | SLOW | NONE**   | ***       |         | LOCATED   |
 pin24                    |                 | R22    | OUTPUT    | LVTTL       | 3        | 12       | SLOW | NONE**   | ***       |         | LOCATED   |
 pin25                    |                 | M18    | OUTPUT    | LVTTL       | 3        | 12       | SLOW | NONE**   | ***       |         | LOCATED   |
 pin26 (L51P_YY)          | L51P_YY         | P21    | OUTPUT    | LVTTL       | 3        | 12       | SLOW | NONE**   | ***       |         | LOCATED   |
 pin27 (L48P_YY)          | L48P_YY         | N20    | OUTPUT    | LVTTL       | 3        | 12       | SLOW | NONE**   | ***       |         | LOCATED   |
 pin28 (D5_L51N_YY)       | D5_L51N_YY      | P22    | OUTPUT    | LVTTL       | 3        | 12       | SLOW | NONE**   | ***       |         | LOCATED   |
 pin29 (L48N_YY)          | L48N_YY         | N19    | OUTPUT    | LVTTL       | 3        | 12       | SLOW | NONE**   | ***       |         | LOCATED   |
 pin30                    |                 | N21    | OUTPUT    | LVTTL       | 3        | 12       | SLOW | NONE**   | ***       |         | LOCATED   |
 pin5                     |                 | V19    | OUTPUT    | LVTTL       | 3        | 12       | SLOW | NONE**   | ***       |         | LOCATED   |
 pin6 (D7_L59P_YY)        | D7_L59P_YY      | Y22    | OUTPUT    | LVTTL       | 3        | 12       | SLOW | NONE**   | ***       |         | LOCATED   |
 pin7                     |                 | V20    | OUTPUT    | LVTTL       | 3        | 12       | SLOW | NONE**   | ***       |         | LOCATED   |
 pin74 (DOUT_BUSY_L29P_YY)| DOUT_BUSY_L29P_YY        |           |             |          |          |      |          |           |         |           |
                          |                 | C21    | INPUT     | LVTTL       | 2        | 12*      | SLOW*| NONE**   | NONE      |         | LOCATED   |
 pin8                     |                 | W22    | OUTPUT    | LVTTL       | 3        | 12       | SLOW | NONE**   | ***       |         | LOCATED   |
 pin9                     |                 | U19    | OUTPUT    | LVTTL       | 3        | 12       | SLOW | NONE**   | ***       |         | LOCATED   |
 v1532 (VREF)             | VREF            | D10    | OUTPUT    | LVTTL       | 0        | 12       | SLOW | NONE**   | ***       |         | LOCATED   |
 v1560                    |                 | D6     | INPUT     | LVTTL       | 0        | 12*      | SLOW*| NONE**   | NONE      |         | LOCATED   |
 vid_det                  |                 | M2     | INPUT     | LVTTL       | 6        | 12*      | SLOW*| NONE**   | NONE      |         | LOCATED   |
 video<0> (L90P_YY)       | L90P_YY         | Y2     | INPUT     | LVTTL       | 6        | 12*      | SLOW*| NONE**   | NONE      |         |           |
 video<10>                |                 | B7     | INPUT     | LVTTL       | 0        | 12*      | SLOW*| NONE**   | NONE      |         | LOCATED   |
 video<11> (L7P_Y)        | L7P_Y           | A8     | INPUT     | LVTTL       | 0        | 12*      | SLOW*| NONE**   | NONE      |         | LOCATED   |
 video<12> (L7N_Y)        | L7N_Y           | B8     | INPUT     | LVTTL       | 0        | 12*      | SLOW*| NONE**   | NONE      |         | LOCATED   |
 video<13> (L10P)         | L10P            | A9     | INPUT     | LVTTL       | 0        | 12*      | SLOW*| NONE**   | NONE      |         | LOCATED   |
 video<14> (L10N)         | L10N            | B9     | INPUT     | LVTTL       | 0        | 12*      | SLOW*| NONE**   | NONE      |         | LOCATED   |
 video<15>                |                 | A10    | INPUT     | LVTTL       | 0        | 12*      | SLOW*| NONE**   | NONE      |         | LOCATED   |
 video<16> (L5N)          | L5N             | D7     | INPUT     | LVTTL       | 0        | 12*      | SLOW*| NONE**   | NONE      |         | LOCATED   |
 video<17> (L5P)          | L5P             | C7     | INPUT     | LVTTL       | 0        | 12*      | SLOW*| NONE**   | NONE      |         | LOCATED   |
 video<18> (VREF)         | VREF            | D8     | INPUT     | LVTTL       | 0        | 12*      | SLOW*| NONE**   | NONE      |         | LOCATED   |
 video<19> (L6P_Y)        | L6P_Y           | C8     | INPUT     | LVTTL       | 0        | 12*      | SLOW*| NONE**   | NONE      |         | LOCATED   |
 video<1> (L0P)           | L0P             | A3     | INPUT     | LVTTL       | 0        | 12*      | SLOW*| NONE**   | NONE      |         | LOCATED   |
 video<2> (L0N)           | L0N             | B3     | INPUT     | LVTTL       | 0        | 12*      | SLOW*| NONE**   | NONE      |         | LOCATED   |
 video<3>                 |                 | A4     | INPUT     | LVTTL       | 0        | 12*      | SLOW*| NONE**   | NONE      |         | LOCATED   |
 video<4> (L1P_Y)         | L1P_Y           | B4     | INPUT     | LVTTL       | 0        | 12*      | SLOW*| NONE**   | NONE      |         | LOCATED   |
 video<5> (L2P)           | L2P             | A5     | INPUT     | LVTTL       | 0        | 12*      | SLOW*| NONE**   | NONE      |         | LOCATED   |
 video<6> (L2N)           | L2N             | B5     | INPUT     | LVTTL       | 0        | 12*      | SLOW*| NONE**   | NONE      |         | LOCATED   |
 video<7> (L3P_YY)        | L3P_YY          | A6     | INPUT     | LVTTL       | 0        | 12*      | SLOW*| NONE**   | NONE      |         | LOCATED   |
 video<8> (VREF)          | VREF            | B6     | INPUT     | LVTTL       | 0        | 12*      | SLOW*| NONE**   | NONE      |         | LOCATED   |
 video<9>                 |                 | A7     | INPUT     | LVTTL       | 0        | 12*      | SLOW*| NONE**   | NONE      |         | LOCATED   |
 vihd<0> (L90N_YY)        | L90N_YY         | W3     | OUTPUT    | LVTTL       | 6        | 12       | SLOW | NONE**   | ***       |         | LOCATED   |
 vihd<10>                 |                 | P3     | OUTPUT    | LVTTL       | 6        | 12       | SLOW | NONE**   | ***       |         | LOCATED   |
 vihd<11> (L102N)         | L102N           | N4     | OUTPUT    | LVTTL       | 6        | 12       | SLOW | NONE**   | ***       |         | LOCATED   |
 vihd<12> (VREF)          | VREF            | N3     | OUTPUT    | LVTTL       | 6        | 12       | SLOW | NONE**   | ***       |         | LOCATED   |
 vihd<13>                 |                 | M4     | OUTPUT    | LVTTL       | 6        | 12       | SLOW | NONE**   | ***       |         | LOCATED   |
 vihd<14> (L98P_YY)       | L98P_YY         | P5     | OUTPUT    | LVTTL       | 6        | 12       | SLOW | NONE**   | ***       |         | LOCATED   |
 vihd<15>                 |                 | N5     | OUTPUT    | LVTTL       | 6        | 12       | SLOW | NONE**   | ***       |         | LOCATED   |
 vihd<16>                 |                 | M6     | OUTPUT    | LVTTL       | 6        | 12       | SLOW | NONE**   | ***       |         | LOCATED   |
 vihd<17>                 |                 | M5     | OUTPUT    | LVTTL       | 6        | 12       | SLOW | NONE**   | ***       |         | LOCATED   |
 vihd<18> (L98N_YY)       | L98N_YY         | P6     | OUTPUT    | LVTTL       | 6        | 12       | SLOW | NONE**   | ***       |         | LOCATED   |
 vihd<19>                 |                 | N6     | OUTPUT    | LVTTL       | 6        | 12       | SLOW | NONE**   | ***       |         | LOCATED   |
 vihd<1>                  |                 | V4     | OUTPUT    | LVTTL       | 6        | 12       | SLOW | NONE**   | ***       |         | LOCATED   |
 vihd<2>                  |                 | V3     | OUTPUT    | LVTTL       | 6        | 12       | SLOW | NONE**   | ***       |         | LOCATED   |
 vihd<3>                  |                 | U4     | OUTPUT    | LVTTL       | 6        | 12       | SLOW | NONE**   | ***       |         | LOCATED   |
 vihd<4>                  |                 | U3     | OUTPUT    | LVTTL       | 6        | 12       | SLOW | NONE**   | ***       |         | LOCATED   |
 vihd<5>                  |                 | T4     | OUTPUT    | LVTTL       | 6        | 12       | SLOW | NONE**   | ***       |         | LOCATED   |
 vihd<6> (L96N)           | L96N            | T3     | OUTPUT    | LVTTL       | 6        | 12       | SLOW | NONE**   | ***       |         | LOCATED   |
 vihd<7>                  |                 | R4     | OUTPUT    | LVTTL       | 6        | 12       | SLOW | NONE**   | ***       |         | LOCATED   |
 vihd<8> (VREF)           | VREF            | R3     | OUTPUT    | LVTTL       | 6        | 12       | SLOW | NONE**   | ***       |         | LOCATED   |
 vihd<9>                  |                 | P4     | OUTPUT    | LVTTL       | 6        | 12       | SLOW | NONE**   | ***       |         | LOCATED   |
--------------------------|-----------------|--------|-----------|-------------|----------|----------|------|----------|-----------|---------|-----------|

Pinout by Pin Number:
--------|--------------------------|-----------------|-----------|-------------|----------|----------|------|----------|-----------|---------|-----------|
 Pin    |       Signal Name        |    Pin Name     | Direction | IO Standard |IO Bank # |Drive (mA)| Slew | Pullup   | IOB Delay | Voltage |Constraint |
 Number |                          |                 |           |             |          |          | Rate | Pulldown |           |         |           |
--------|--------------------------|-----------------|-----------|-------------|----------|----------|------|----------|-----------|---------|-----------|
 A1     |                          | GND             |           | LVTTL*      |          | 12*      | SLOW*| NONE**   | ***       |         |           |
 A2     |                          | NC              |           | LVTTL*      |          | 12*      | SLOW*| NONE**   | ***       |         |           |
 A3     | video<1>                 | L0P             | INPUT     | LVTTL       | 0        | 12*      | SLOW*| NONE**   | NONE      |         | LOCATED   |
 A4     | video<3>                 |                 | INPUT     | LVTTL       | 0        | 12*      | SLOW*| NONE**   | NONE      |         | LOCATED   |
 A5     | video<5>                 | L2P             | INPUT     | LVTTL       | 0        | 12*      | SLOW*| NONE**   | NONE      |         | LOCATED   |
 A6     | video<7>                 | L3P_YY          | INPUT     | LVTTL       | 0        | 12*      | SLOW*| NONE**   | NONE      |         | LOCATED   |
 A7     | video<9>                 |                 | INPUT     | LVTTL       | 0        | 12*      | SLOW*| NONE**   | NONE      |         | LOCATED   |
 A8     | video<11>                | L7P_Y           | INPUT     | LVTTL       | 0        | 12*      | SLOW*| NONE**   | NONE      |         | LOCATED   |
 A9     | video<13>                | L10P            | INPUT     | LVTTL       | 0        | 12*      | SLOW*| NONE**   | NONE      |         | LOCATED   |
 A10    | video<15>                |                 | INPUT     | LVTTL       | 0        | 12*      | SLOW*| NONE**   | NONE      |         | LOCATED   |
 A11    |                          |                 | UNUSED    | LVTTL*      | 1        | 12*      | SLOW*| NONE**   | ***       |         |           |
 A12    | din<0>                   | LVDS_DLL_L13P   | OUTPUT    | LVTTL       | 1        | 12       | SLOW | NONE**   | ***       |         | LOCATED   |
 A13    | din<2>                   |                 | OUTPUT    | LVTTL       | 1        | 12       | SLOW | NONE**   | ***       |         | LOCATED   |
 A14    | din<4>                   |                 | OUTPUT    | LVTTL       | 1        | 12       | SLOW | NONE**   | ***       |         | LOCATED   |
 A15    | din<6>                   |                 | OUTPUT    | LVTTL       | 1        | 12       | SLOW | NONE**   | ***       |         | LOCATED   |
 A16    | din<8>                   |                 | OUTPUT    | LVTTL       | 1        | 12       | SLOW | NONE**   | ***       |         | LOCATED   |
 A17    | din<10>                  | L25N_YY         | OUTPUT    | LVTTL       | 1        | 12       | SLOW | NONE**   | ***       |         | LOCATED   |
 A18    | din<12>                  |                 | OUTPUT    | LVTTL       | 1        | 12       | SLOW | NONE**   | ***       |         | LOCATED   |
 A19    | din<14>                  |                 | OUTPUT    | LVTTL       | 1        | 12       | SLOW | NONE**   | ***       |         | LOCATED   |
 A20    | din<16>                  | WRITE_L28N_YY   | OUTPUT    | LVTTL       | 1        | 12       | SLOW | NONE**   | ***       |         | LOCATED   |
 A21    |                          | TDO             |           | LVTTL*      |          | 12*      | SLOW*| NONE**   | ***       |         |           |
 A22    |                          | GND             |           | LVTTL*      |          | 12*      | SLOW*| NONE**   | ***       |         |           |
 AA1    |                          | M0              |           | LVTTL*      |          | 12*      | SLOW*| NONE**   | ***       |         |           |
 AA2    |                          | GND             |           | LVTTL*      |          | 12*      | SLOW*| NONE**   | ***       |         |           |
 AA3    |                          |                 | UNUSED    | LVTTL*      | 5        | 12*      | SLOW*| NONE**   | ***       |         |           |
 AA4    |                          | NC              |           | LVTTL*      |          | 12*      | SLOW*| NONE**   | ***       |         |           |
 AA5    |                          |                 | UNUSED    | LVTTL*      | 5        | 12*      | SLOW*| NONE**   | ***       |         |           |
 AA6    |                          |                 | UNUSED    | LVTTL*      | 5        | 12*      | SLOW*| NONE**   | ***       |         |           |
 AA7    |                          | L85P_YY         |           | LVTTL*      | 5        | 12*      | SLOW*| NONE**   | ***       |         |           |
 AA8    |                          |                 | UNUSED    | LVTTL*      | 5        | 12*      | SLOW*| NONE**   | ***       |         |           |
 AA9    |                          |                 | UNUSED    | LVTTL*      | 5        | 12*      | SLOW*| NONE**   | ***       |         |           |
 AA10   |                          |                 | UNUSED    | LVTTL*      | 5        | 12*      | SLOW*| NONE**   | ***       |         |           |
 AA11   |                          |                 | UNUSED    | LVTTL*      | 5        | 12*      | SLOW*| NONE**   | ***       |         |           |
 AA12   |                          |                 | UNUSED    | LVTTL*      | 4        | 12*      | SLOW*| NONE**   | ***       |         |           |
 AA13   |                          |                 | UNUSED    | LVTTL*      | 4        | 12*      | SLOW*| NONE**   | ***       |         |           |
 AA14   |                          | L71P            |           | LVTTL*      | 4        | 12*      | SLOW*| NONE**   | ***       |         |           |
 AA15   |                          |                 | UNUSED    | LVTTL*      | 4        | 12*      | SLOW*| NONE**   | ***       |         |           |
 AA16   |                          | L66N            |           | LVTTL*      | 4        | 12*      | SLOW*| NONE**   | ***       |         |           |
 AA17   |                          | L64N_YY         |           | LVTTL*      | 4        | 12*      | SLOW*| NONE**   | ***       |         |           |
 AA18   |                          |                 | UNUSED    | LVTTL*      | 4        | 12*      | SLOW*| NONE**   | ***       |         |           |
 AA19   |                          | L61N            |           | LVTTL*      | 4        | 12*      | SLOW*| NONE**   | ***       |         |           |
 AA20   |                          | L60P_YY         |           | LVTTL*      | 4        | 12*      | SLOW*| NONE**   | ***       |         |           |
 AA21   |                          | GND             |           | LVTTL*      |          | 12*      | SLOW*| NONE**   | ***       |         |           |
 AA22   |                          | NC              |           | LVTTL*      |          | 12*      | SLOW*| NONE**   | ***       |         |           |
 AB1    |                          | GND             |           | LVTTL*      |          | 12*      | SLOW*| NONE**   | ***       |         |           |
 AB2    |                          | M2              |           | LVTTL*      |          | 12*      | SLOW*| NONE**   | ***       |         |           |
 AB3    |                          |                 | UNUSED    | LVTTL*      | 5        | 12*      | SLOW*| NONE**   | ***       |         |           |
 AB4    |                          |                 | UNUSED    | LVTTL*      | 5        | 12*      | SLOW*| NONE**   | ***       |         |           |
 AB5    |                          | VREF            |           | LVTTL*      | 5        | 12*      | SLOW*| NONE**   | ***       |         |           |
 AB6    |                          |                 | UNUSED    | LVTTL*      | 5        | 12*      | SLOW*| NONE**   | ***       |         |           |
 AB7    |                          | VREF            |           | LVTTL*      | 5        | 12*      | SLOW*| NONE**   | ***       |         |           |
 AB8    |                          |                 | UNUSED    | LVTTL*      | 5        | 12*      | SLOW*| NONE**   | ***       |         |           |
 AB9    |                          |                 | UNUSED    | LVTTL*      | 5        | 12*      | SLOW*| NONE**   | ***       |         |           |
 AB10   |                          |                 | UNUSED    | LVTTL*      | 5        | 12*      | SLOW*| NONE**   | ***       |         |           |
 AB11   |                          | LVDS_DLL_L75N   |           | LVTTL*      | 5        | 12*      | SLOW*| NONE**   | ***       |         |           |
 AB12   |                          |                 | UNUSED    | LVTTL*      | 5        | 12*      | SLOW*| NONE**   | ***       |         |           |
 AB13   |                          |                 | UNUSED    | LVTTL*      | 4        | 12*      | SLOW*| NONE**   | ***       |         |           |
 AB14   |                          | L71N            |           | LVTTL*      | 4        | 12*      | SLOW*| NONE**   | ***       |         |           |
 AB15   |                          |                 | UNUSED    | LVTTL*      | 4        | 12*      | SLOW*| NONE**   | ***       |         |           |
 AB16   |                          |                 | UNUSED    | LVTTL*      | 4        | 12*      | SLOW*| NONE**   | ***       |         |           |
 AB17   |                          |                 | UNUSED    | LVTTL*      | 4        | 12*      | SLOW*| NONE**   | ***       |         |           |
 AB18   |                          |                 | UNUSED    | LVTTL*      | 4        | 12*      | SLOW*| NONE**   | ***       |         |           |
 AB19   |                          |                 | UNUSED    | LVTTL*      | 4        | 12*      | SLOW*| NONE**   | ***       |         |           |
 AB20   |                          | L60N_YY         |           | LVTTL*      | 4        | 12*      | SLOW*| NONE**   | ***       |         |           |
 AB21   |                          |                 | UNUSED    | LVTTL*      | 4        | 12*      | SLOW*| NONE**   | ***       |         |           |
 AB22   |                          | GND             |           | LVTTL*      |          | 12*      | SLOW*| NONE**   | ***       |         |           |
 B1     |                          | NC              |           | LVTTL*      |          | 12*      | SLOW*| NONE**   | ***       |         |           |
 B2     |                          | GND             |           | LVTTL*      |          | 12*      | SLOW*| NONE**   | ***       |         |           |
 B3     | video<2>                 | L0N             | INPUT     | LVTTL       | 0        | 12*      | SLOW*| NONE**   | NONE      |         | LOCATED   |
 B4     | video<4>                 | L1P_Y           | INPUT     | LVTTL       | 0        | 12*      | SLOW*| NONE**   | NONE      |         | LOCATED   |
 B5     | video<6>                 | L2N             | INPUT     | LVTTL       | 0        | 12*      | SLOW*| NONE**   | NONE      |         | LOCATED   |
 B6     | video<8>                 | VREF            | INPUT     | LVTTL       | 0        | 12*      | SLOW*| NONE**   | NONE      |         | LOCATED   |
 B7     | video<10>                |                 | INPUT     | LVTTL       | 0        | 12*      | SLOW*| NONE**   | NONE      |         | LOCATED   |
 B8     | video<12>                | L7N_Y           | INPUT     | LVTTL       | 0        | 12*      | SLOW*| NONE**   | NONE      |         | LOCATED   |
 B9     | video<14>                | L10N            | INPUT     | LVTTL       | 0        | 12*      | SLOW*| NONE**   | NONE      |         | LOCATED   |
 B10    |                          |                 | UNUSED    | LVTTL*      | 0        | 12*      | SLOW*| NONE**   | ***       |         |           |
 B11    | pclk1532                 | LVDS_DLL_L13N   | OUTPUT    | LVTTL       | 0        | 12       | SLOW | NONE**   | ***       |         | LOCATED   |
 B12    | din<1>                   |                 | OUTPUT    | LVTTL       | 1        | 12       | SLOW | NONE**   | ***       |         | LOCATED   |
 B13    | din<3>                   | VREF            | OUTPUT    | LVTTL       | 1        | 12       | SLOW | NONE**   | ***       |         | LOCATED   |
 B14    | din<5>                   |                 | OUTPUT    | LVTTL       | 1        | 12       | SLOW | NONE**   | ***       |         | LOCATED   |
 B15    | din<7>                   |                 | OUTPUT    | LVTTL       | 1        | 12       | SLOW | NONE**   | ***       |         | LOCATED   |
 B16    | din<9>                   |                 | OUTPUT    | LVTTL       | 1        | 12       | SLOW | NONE**   | ***       |         | LOCATED   |
 B17    | din<11>                  | L25P_YY         | OUTPUT    | LVTTL       | 1        | 12       | SLOW | NONE**   | ***       |         | LOCATED   |
 B18    | din<13>                  | VREF            | OUTPUT    | LVTTL       | 1        | 12       | SLOW | NONE**   | ***       |         | LOCATED   |
 B19    | din<15>                  |                 | OUTPUT    | LVTTL       | 1        | 12       | SLOW | NONE**   | ***       |         | LOCATED   |
 B20    | cs_f                     | CS_L28P_YY      | INPUT     | LVTTL       | 1        | 12*      | SLOW*| NONE**   | NONE      |         | LOCATED   |
 B21    |                          | GND             |           | LVTTL*      |          | 12*      | SLOW*| NONE**   | ***       |         |           |
 B22    |                          | CCLK            |           | LVTTL*      |          | 12*      | SLOW*| NONE**   | ***       |         |           |
 C1     |                          |                 | UNUSED    | LVTTL*      | 7        | 12*      | SLOW*| NONE**   | ***       |         |           |
 C2     |                          |                 | UNUSED    | LVTTL*      | 7        | 12*      | SLOW*| NONE**   | ***       |         |           |
 C3     |                          | GND             |           | LVTTL*      |          | 12*      | SLOW*| NONE**   | ***       |         |           |
 C4     |                          |                 | UNUSED    | LVTTL*      | 0        | 12*      | SLOW*| NONE**   | ***       |         |           |
 C5     | f1560                    | VREF            | INPUT     | LVTTL       | 0        | 12*      | SLOW*| NONE**   | NONE      |         | LOCATED   |
 C6     | h1560                    |                 | INPUT     | LVTTL       | 0        | 12*      | SLOW*| NONE**   | NONE      |         | LOCATED   |
 C7     | video<17>                | L5P             | INPUT     | LVTTL       | 0        | 12*      | SLOW*| NONE**   | NONE      |         | LOCATED   |
 C8     | video<19>                | L6P_Y           | INPUT     | LVTTL       | 0        | 12*      | SLOW*| NONE**   | NONE      |         | LOCATED   |
 C9     | f1532                    | L9P             | OUTPUT    | LVTTL       | 0        | 12       | SLOW | NONE**   | ***       |         | LOCATED   |
 C10    | h1532                    |                 | OUTPUT    | LVTTL       | 0        | 12       | SLOW | NONE**   | ***       |         | LOCATED   |
 C11    | pclk1560                 |                 | INPUT     | LVTTL       | 0        | 12*      | SLOW*| NONE**   | ***       |         | LOCATED   |
 C12    | din<17>                  |                 | OUTPUT    | LVTTL       | 1        | 12       | SLOW | NONE**   | ***       |         | LOCATED   |
 C13    |                          |                 | UNUSED    | LVTTL*      | 1        | 12*      | SLOW*| NONE**   | ***       |         |           |
 C14    |                          |                 | UNUSED    | LVTTL*      | 1        | 12*      | SLOW*| NONE**   | ***       |         |           |
 C15    |                          |                 | UNUSED    | LVTTL*      | 1        | 12*      | SLOW*| NONE**   | ***       |         |           |
 C16    |                          |                 | UNUSED    | LVTTL*      | 1        | 12*      | SLOW*| NONE**   | ***       |         |           |
 C17    |                          |                 | UNUSED    | LVTTL*      | 1        | 12*      | SLOW*| NONE**   | ***       |         |           |
 C18    |                          |                 | UNUSED    | LVTTL*      | 1        | 12*      | SLOW*| NONE**   | ***       |         |           |
 C19    |                          | TDI             |           | LVTTL*      |          | 12*      | SLOW*| NONE**   | ***       |         |           |
 C20    |                          | GND             |           | LVTTL*      |          | 12*      | SLOW*| NONE**   | ***       |         |           |
 C21    | pin74                    | DOUT_BUSY_L29P_YY           |             |          |          |      |          |           |         |           |
        |                          |                 | INPUT     | LVTTL       | 2        | 12*      | SLOW*| NONE**   | NONE      |         | LOCATED   |
 C22    |                          | DIN_D0_L29N_YY  |           | LVTTL*      | 2        | 12*      | SLOW*| NONE**   | ***       |         |           |
 D1     |                          |                 | UNUSED    | LVTTL*      | 7        | 12*      | SLOW*| NONE**   | ***       |         |           |
 D2     |                          |                 | UNUSED    | LVTTL*      | 7        | 12*      | SLOW*| NONE**   | ***       |         |           |
 D3     |                          |                 | UNUSED    | LVTTL*      | 7        | 12*      | SLOW*| NONE**   | ***       |         |           |
 D4     |                          | NC              |           | LVTTL*      |          | 12*      | SLOW*| NONE**   | ***       |         |           |
 D5     |                          |                 | UNUSED    | LVTTL*      | 0        | 12*      | SLOW*| NONE**   | ***       |         |           |
 D6     | v1560                    |                 | INPUT     | LVTTL       | 0        | 12*      | SLOW*| NONE**   | NONE      |         | LOCATED   |
 D7     | video<16>                | L5N             | INPUT     | LVTTL       | 0        | 12*      | SLOW*| NONE**   | NONE      |         | LOCATED   |
 D8     | video<18>                | VREF            | INPUT     | LVTTL       | 0        | 12*      | SLOW*| NONE**   | NONE      |         | LOCATED   |
 D9     | lock1560                 | L9N             | INPUT     | LVTTL       | 0        | 12*      | SLOW*| NONE**   | NONE      |         | LOCATED   |
 D10    | v1532                    | VREF            | OUTPUT    | LVTTL       | 0        | 12       | SLOW | NONE**   | ***       |         | LOCATED   |
 D11    |                          |                 | UNUSED    | LVTTL*      | 0        | 12*      | SLOW*| NONE**   | ***       |         |           |
 D12    |                          |                 | UNUSED    | LVTTL*      | 1        | 12*      | SLOW*| NONE**   | ***       |         |           |
 D13    |                          |                 | UNUSED    | LVTTL*      | 1        | 12*      | SLOW*| NONE**   | ***       |         |           |
 D14    |                          |                 | UNUSED    | LVTTL*      | 1        | 12*      | SLOW*| NONE**   | ***       |         |           |
 D15    |                          | VREF            |           | LVTTL*      | 1        | 12*      | SLOW*| NONE**   | ***       |         |           |
 D16    |                          |                 | UNUSED    | LVTTL*      | 1        | 12*      | SLOW*| NONE**   | ***       |         |           |
 D17    |                          |                 | UNUSED    | LVTTL*      | 1        | 12*      | SLOW*| NONE**   | ***       |         |           |
 D18    |                          |                 | UNUSED    | LVTTL*      | 1        | 12*      | SLOW*| NONE**   | ***       |         |           |
 D19    |                          | NC              |           | LVTTL*      |          | 12*      | SLOW*| NONE**   | ***       |         |           |
 D20    |                          |                 | UNUSED    | LVTTL*      | 2        | 12*      | SLOW*| NONE**   | ***       |         |           |
 D21    |                          | VREF            |           | LVTTL*      | 2        | 12*      | SLOW*| NONE**   | ***       |         |           |
 D22    |                          |                 | UNUSED    | LVTTL*      | 2        | 12*      | SLOW*| NONE**   | ***       |         |           |
 E1     |                          |                 | UNUSED    | LVTTL*      | 7        | 12*      | SLOW*| NONE**   | ***       |         |           |
 E2     |                          | VREF            |           | LVTTL*      | 7        | 12*      | SLOW*| NONE**   | ***       |         |           |
 E3     |                          |                 | UNUSED    | LVTTL*      | 7        | 12*      | SLOW*| NONE**   | ***       |         |           |
 E4     |                          | TMS             |           | LVTTL*      |          | 12*      | SLOW*| NONE**   | ***       |         |           |
 E5     |                          | VCCINT          |           | LVTTL*      |          | 12*      | SLOW*| NONE**   | ***       | 1.8     |           |
 E6     |                          | TCK             |           | LVTTL*      |          | 12*      | SLOW*| NONE**   | ***       |         |           |
 E7     | pclksd                   | L4N             | OUTPUT    | LVTTL       | 0        | 12       | SLOW | NONE**   | ***       |         | LOCATED   |
 E8     |                          | L4P             |           | LVTTL*      | 0        | 12*      | SLOW*| NONE**   | ***       |         |           |
 E9     |                          | L8N             |           | LVTTL*      | 0        | 12*      | SLOW*| NONE**   | ***       |         |           |
 E10    |                          |                 | UNUSED    | LVTTL*      | 0        | 12*      | SLOW*| NONE**   | ***       |         |           |
 E11    |                          |                 | UNUSED    | LVTTL*      | 0        | 12*      | SLOW*| NONE**   | ***       |         |           |
 E12    |                          |                 | UNUSED    | LVTTL*      | 1        | 12*      | SLOW*| NONE**   | ***       |         |           |
 E13    |                          |                 | UNUSED    | LVTTL*      | 1        | 12*      | SLOW*| NONE**   | ***       |         |           |
 E14    |                          |                 | UNUSED    | LVTTL*      | 1        | 12*      | SLOW*| NONE**   | ***       |         |           |
 E15    |                          |                 | UNUSED    | LVTTL*      | 1        | 12*      | SLOW*| NONE**   | ***       |         |           |
 E16    |                          | VREF            |           | LVTTL*      | 1        | 12*      | SLOW*| NONE**   | ***       |         |           |
 E17    |                          | L24N_YY         |           | LVTTL*      | 1        | 12*      | SLOW*| NONE**   | ***       |         |           |
 E18    |                          | VCCINT          |           | LVTTL*      |          | 12*      | SLOW*| NONE**   | ***       | 1.8     |           |
 E19    |                          |                 | UNUSED    | LVTTL*      | 2        | 12*      | SLOW*| NONE**   | ***       |         |           |
 E20    |                          |                 | UNUSED    | LVTTL*      | 2        | 12*      | SLOW*| NONE**   | ***       |         |           |
 E21    |                          |                 | UNUSED    | LVTTL*      | 2        | 12*      | SLOW*| NONE**   | ***       |         |           |
 E22    |                          |                 | UNUSED    | LVTTL*      | 2        | 12*      | SLOW*| NONE**   | ***       |         |           |
 F1     |                          |                 | UNUSED    | LVTTL*      | 7        | 12*      | SLOW*| NONE**   | ***       |         |           |
 F2     |                          | VREF            |           | LVTTL*      | 7        | 12*      | SLOW*| NONE**   | ***       |         |           |
 F3     |                          |                 | UNUSED    | LVTTL*      | 7        | 12*      | SLOW*| NONE**   | ***       |         |           |
 F4     |                          |                 | UNUSED    | LVTTL*      | 7        | 12*      | SLOW*| NONE**   | ***       |         |           |
 F5     |                          |                 | UNUSED    | LVTTL*      | 7        | 12*      | SLOW*| NONE**   | ***       |         |           |
 F6     |                          | VCCINT          |           | LVTTL*      |          | 12*      | SLOW*| NONE**   | ***       | 1.8     |           |
 F7     |                          | VCCO_0          |           | LVTTL*      |          | 12*      | SLOW*| NONE**   | ***       | 3.30    |           |
 F8     |                          | VCCO_0          |           | LVTTL*      |          | 12*      | SLOW*| NONE**   | ***       | 3.30    |           |
 F9     | aouta                    | L8P             | INPUT     | LVTTL       | 0        | 12*      | SLOW*| NONE**   | NONE      |         | LOCATED   |
 F10    | aoutb                    |                 | INPUT     | LVTTL       | 0        | 12*      | SLOW*| NONE**   | NONE      |         | LOCATED   |
 F11    |                          |                 | UNUSED    | LVTTL*      | 0        | 12*      | SLOW*| NONE**   | ***       |         |           |
 F12    |                          |                 | UNUSED    | LVTTL*      | 1        | 12*      | SLOW*| NONE**   | ***       |         |           |
 F13    | din<18>                  |                 | OUTPUT    | LVTTL       | 1        | 12       | SLOW | NONE**   | ***       |         | LOCATED   |
 F14    | din<19>                  |                 | OUTPUT    | LVTTL       | 1        | 12       | SLOW | NONE**   | ***       |         | LOCATED   |
 F15    |                          | VCCO_1          |           | LVTTL*      |          | 12*      | SLOW*| NONE**   | ***       | 3.30    |           |
 F16    |                          | VCCO_1          |           | LVTTL*      |          | 12*      | SLOW*| NONE**   | ***       | 3.30    |           |
 F17    |                          | VCCINT          |           | LVTTL*      |          | 12*      | SLOW*| NONE**   | ***       | 1.8     |           |
 F18    |                          |                 | UNUSED    | LVTTL*      | 2        | 12*      | SLOW*| NONE**   | ***       |         |           |
 F19    |                          |                 | UNUSED    | LVTTL*      | 2        | 12*      | SLOW*| NONE**   | ***       |         |           |
 F20    |                          |                 | UNUSED    | LVTTL*      | 2        | 12*      | SLOW*| NONE**   | ***       |         |           |
 F21    |                          | VREF            |           | LVTTL*      | 2        | 12*      | SLOW*| NONE**   | ***       |         |           |
 F22    |                          |                 | UNUSED    | LVTTL*      | 2        | 12*      | SLOW*| NONE**   | ***       |         |           |
 G1     |                          |                 | UNUSED    | LVTTL*      | 7        | 12*      | SLOW*| NONE**   | ***       |         |           |
 G2     |                          |                 | UNUSED    | LVTTL*      | 7        | 12*      | SLOW*| NONE**   | ***       |         |           |
 G3     |                          |                 | UNUSED    | LVTTL*      | 7        | 12*      | SLOW*| NONE**   | ***       |         |           |
 G4     |                          |                 | UNUSED    | LVTTL*      | 7        | 12*      | SLOW*| NONE**   | ***       |         |           |
 G5     |                          |                 | UNUSED    | LVTTL*      | 7        | 12*      | SLOW*| NONE**   | ***       |         |           |
 G6     |                          | VCCO_7          |           | LVTTL*      |          | 12*      | SLOW*| NONE**   | ***       | 3.30    |           |
 G7     |                          | VCCINT          |           | LVTTL*      |          | 12*      | SLOW*| NONE**   | ***       | 1.8     |           |
 G8     |                          | VCCINT          |           | LVTTL*      |          | 12*      | SLOW*| NONE**   | ***       | 1.8     |           |
 G9     |                          | VCCO_0          |           | LVTTL*      |          | 12*      | SLOW*| NONE**   | ***       | 3.30    |           |
 G10    |                          | VCCO_0          |           | LVTTL*      |          | 12*      | SLOW*| NONE**   | ***       | 3.30    |           |
 G11    |                          | GND             |           | LVTTL*      |          | 12*      | SLOW*| NONE**   | ***       |         |           |
 G12    |                          | GND             |           | LVTTL*      |          | 12*      | SLOW*| NONE**   | ***       |         |           |
 G13    |                          | VCCO_1          |           | LVTTL*      |          | 12*      | SLOW*| NONE**   | ***       | 3.30    |           |
 G14    |                          | VCCO_1          |           | LVTTL*      |          | 12*      | SLOW*| NONE**   | ***       | 3.30    |           |
 G15    |                          | VCCINT          |           | LVTTL*      |          | 12*      | SLOW*| NONE**   | ***       | 1.8     |           |
 G16    |                          | VCCINT          |           | LVTTL*      |          | 12*      | SLOW*| NONE**   | ***       | 1.8     |           |
 G17    |                          | VCCO_2          |           | LVTTL*      |          | 12*      | SLOW*| NONE**   | ***       | 3.30    |           |
 G18    |                          |                 | UNUSED    | LVTTL*      | 2        | 12*      | SLOW*| NONE**   | ***       |         |           |
 G19    |                          |                 | UNUSED    | LVTTL*      | 2        | 12*      | SLOW*| NONE**   | ***       |         |           |
 G20    |                          | L35P            |           | LVTTL*      | 2        | 12*      | SLOW*| NONE**   | ***       |         |           |
 G21    |                          | L35N            |           | LVTTL*      | 2        | 12*      | SLOW*| NONE**   | ***       |         |           |
 G22    |                          |                 | UNUSED    | LVTTL*      | 2        | 12*      | SLOW*| NONE**   | ***       |         |           |
 H1     |                          | L112N_YY        |           | LVTTL*      | 7        | 12*      | SLOW*| NONE**   | ***       |         |           |
 H2     |                          | L112P_YY        |           | LVTTL*      | 7        | 12*      | SLOW*| NONE**   | ***       |         |           |
 H3     |                          | VREF            |           | LVTTL*      | 7        | 12*      | SLOW*| NONE**   | ***       |         |           |
 H4     |                          |                 | UNUSED    | LVTTL*      | 7        | 12*      | SLOW*| NONE**   | ***       |         |           |
 H5     |                          |                 | UNUSED    | LVTTL*      | 7        | 12*      | SLOW*| NONE**   | ***       |         |           |
 H6     |                          | VCCO_7          |           | LVTTL*      |          | 12*      | SLOW*| NONE**   | ***       | 3.30    |           |
 H7     |                          | VCCINT          |           | LVTTL*      |          | 12*      | SLOW*| NONE**   | ***       | 1.8     |           |
 H16    |                          | VCCINT          |           | LVTTL*      |          | 12*      | SLOW*| NONE**   | ***       | 1.8     |           |
 H17    |                          | VCCO_2          |           | LVTTL*      |          | 12*      | SLOW*| NONE**   | ***       | 3.30    |           |
 H18    |                          | VREF            |           | LVTTL*      | 2        | 12*      | SLOW*| NONE**   | ***       |         |           |
 H19    |                          | D1_L36N_Y       |           | LVTTL*      | 2        | 12*      | SLOW*| NONE**   | ***       |         |           |
 H20    |                          | D2_L37P_Y       |           | LVTTL*      | 2        | 12*      | SLOW*| NONE**   | ***       |         |           |
 H21    |                          |                 | UNUSED    | LVTTL*      | 2        | 12*      | SLOW*| NONE**   | ***       |         |           |
 H22    |                          |                 | UNUSED    | LVTTL*      | 2        | 12*      | SLOW*| NONE**   | ***       |         |           |
 J1     |                          |                 | UNUSED    | LVTTL*      | 7        | 12*      | SLOW*| NONE**   | ***       |         |           |
 J2     |                          |                 | UNUSED    | LVTTL*      | 7        | 12*      | SLOW*| NONE**   | ***       |         |           |
 J3     |                          |                 | UNUSED    | LVTTL*      | 7        | 12*      | SLOW*| NONE**   | ***       |         |           |
 J4     |                          |                 | UNUSED    | LVTTL*      | 7        | 12*      | SLOW*| NONE**   | ***       |         |           |
 J5     |                          |                 | UNUSED    | LVTTL*      | 7        | 12*      | SLOW*| NONE**   | ***       |         |           |
 J6     | buferr                   |                 | INPUT     | LVTTL       | 7        | 12*      | SLOW*| NONE**   | NONE      |         | LOCATED   |
 J7     |                          | VCCO_7          |           | LVTTL*      |          | 12*      | SLOW*| NONE**   | ***       | 3.30    |           |
 J9     |                          | GND             |           | LVTTL*      |          | 12*      | SLOW*| NONE**   | ***       |         |           |
 J10    |                          | GND             |           | LVTTL*      |          | 12*      | SLOW*| NONE**   | ***       |         |           |
 J11    |                          | GND             |           | LVTTL*      |          | 12*      | SLOW*| NONE**   | ***       |         |           |
 J12    |                          | GND             |           | LVTTL*      |          | 12*      | SLOW*| NONE**   | ***       |         |           |
 J13    |                          | GND             |           | LVTTL*      |          | 12*      | SLOW*| NONE**   | ***       |         |           |
 J14    |                          | GND             |           | LVTTL*      |          | 12*      | SLOW*| NONE**   | ***       |         |           |
 J16    |                          | VCCO_2          |           | LVTTL*      |          | 12*      | SLOW*| NONE**   | ***       | 3.30    |           |
 J17    |                          |                 | UNUSED    | LVTTL*      | 2        | 12*      | SLOW*| NONE**   | ***       |         |           |
 J18    |                          |                 | UNUSED    | LVTTL*      | 2        | 12*      | SLOW*| NONE**   | ***       |         |           |
 J19    |                          |                 | UNUSED    | LVTTL*      | 2        | 12*      | SLOW*| NONE**   | ***       |         |           |
 J20    |                          |                 | UNUSED    | LVTTL*      | 2        | 12*      | SLOW*| NONE**   | ***       |         |           |
 J21    |                          |                 | UNUSED    | LVTTL*      | 2        | 12*      | SLOW*| NONE**   | ***       |         |           |
 J22    |                          |                 | UNUSED    | LVTTL*      | 2        | 12*      | SLOW*| NONE**   | ***       |         |           |
 K1     |                          |                 | UNUSED    | LVTTL*      | 7        | 12*      | SLOW*| NONE**   | ***       |         |           |
 K2     |                          |                 | UNUSED    | LVTTL*      | 7        | 12*      | SLOW*| NONE**   | ***       |         |           |
 K3     |                          | VREF            |           | LVTTL*      | 7        | 12*      | SLOW*| NONE**   | ***       |         |           |
 K4     |                          |                 | UNUSED    | LVTTL*      | 7        | 12*      | SLOW*| NONE**   | ***       |         |           |
 K5     |                          | L109P_YY        |           | LVTTL*      | 7        | 12*      | SLOW*| NONE**   | ***       |         |           |
 K6     | pclkhd                   | L109N_YY        | OUTPUT    | LVTTL       | 7        | 12       | SLOW | NONE**   | ***       |         | LOCATED   |
 K7     |                          | VCCO_7          |           | LVTTL*      |          | 12*      | SLOW*| NONE**   | ***       | 3.30    |           |
 K9     |                          | GND             |           | LVTTL*      |          | 12*      | SLOW*| NONE**   | ***       |         |           |
 K10    |                          | GND             |           | LVTTL*      |          | 12*      | SLOW*| NONE**   | ***       |         |           |
 K11    |                          | GND             |           | LVTTL*      |          | 12*      | SLOW*| NONE**   | ***       |         |           |
 K12    |                          | GND             |           | LVTTL*      |          | 12*      | SLOW*| NONE**   | ***       |         |           |
 K13    |                          | GND             |           | LVTTL*      |          | 12*      | SLOW*| NONE**   | ***       |         |           |
 K14    |                          | GND             |           | LVTTL*      |          | 12*      | SLOW*| NONE**   | ***       |         |           |
 K16    |                          | VCCO_2          |           | LVTTL*      |          | 12*      | SLOW*| NONE**   | ***       | 3.30    |           |
 K17    |                          | L41P            |           | LVTTL*      | 2        | 12*      | SLOW*| NONE**   | ***       |         |           |
 K18    |                          | VREF            |           | LVTTL*      | 2        | 12*      | SLOW*| NONE**   | ***       |         |           |
 K19    |                          | D3              |           | LVTTL*      | 2        | 12*      | SLOW*| NONE**   | ***       |         |           |
 K20    |                          |                 | UNUSED    | LVTTL*      | 2        | 12*      | SLOW*| NONE**   | ***       |         |           |
 K21    |                          |                 | UNUSED    | LVTTL*      | 2        | 12*      | SLOW*| NONE**   | ***       |         |           |
 K22    |                          |                 | UNUSED    | LVTTL*      | 2        | 12*      | SLOW*| NONE**   | ***       |         |           |
 L1     |                          |                 | UNUSED    | LVTTL*      | 7        | 12*      | SLOW*| NONE**   | ***       |         |           |
 L2     |                          |                 | UNUSED    | LVTTL*      | 7        | 12*      | SLOW*| NONE**   | ***       |         |           |
 L3     |                          |                 | UNUSED    | LVTTL*      | 7        | 12*      | SLOW*| NONE**   | ***       |         |           |
 L4     |                          |                 | UNUSED    | LVTTL*      | 7        | 12*      | SLOW*| NONE**   | ***       |         |           |
 L5     |                          | L105P_YY        |           | LVTTL*      | 7        | 12*      | SLOW*| NONE**   | ***       |         |           |
 L6     |                          | IRDY_L105N_YY   |           | LVTTL*      | 7        | 12*      | SLOW*| NONE**   | ***       |         |           |
 L7     |                          | GND             |           | LVTTL*      |          | 12*      | SLOW*| NONE**   | ***       |         |           |
 L9     |                          | GND             |           | LVTTL*      |          | 12*      | SLOW*| NONE**   | ***       |         |           |
 L10    |                          | GND             |           | LVTTL*      |          | 12*      | SLOW*| NONE**   | ***       |         |           |
 L11    |                          | GND             |           | LVTTL*      |          | 12*      | SLOW*| NONE**   | ***       |         |           |
 L12    |                          | GND             |           | LVTTL*      |          | 12*      | SLOW*| NONE**   | ***       |         |           |
 L13    |                          | GND             |           | LVTTL*      |          | 12*      | SLOW*| NONE**   | ***       |         |           |
 L14    |                          | GND             |           | LVTTL*      |          | 12*      | SLOW*| NONE**   | ***       |         |           |
 L16    |                          | GND             |           | LVTTL*      |          | 12*      | SLOW*| NONE**   | ***       |         |           |
 L17    |                          |                 | UNUSED    | LVTTL*      | 2        | 12*      | SLOW*| NONE**   | ***       |         |           |
 L18    |                          |                 | UNUSED    | LVTTL*      | 2        | 12*      | SLOW*| NONE**   | ***       |         |           |
 L19    |                          |                 | UNUSED    | LVTTL*      | 2        | 12*      | SLOW*| NONE**   | ***       |         |           |
 L20    |                          | L44P_YY         |           | LVTTL*      | 2        | 12*      | SLOW*| NONE**   | ***       |         |           |
 L21    |                          | IRDY_L44N_YY    |           | LVTTL*      | 2        | 12*      | SLOW*| NONE**   | ***       |         |           |
 L22    |                          | TRDY            |           | LVTTL*      | 3        | 12*      | SLOW*| NONE**   | ***       |         |           |
 M1     | extf                     | TRDY            | INPUT     | LVTTL       | 6        | 12*      | SLOW*| NONE**   | NONE      |         | LOCATED   |
 M2     | vid_det                  |                 | INPUT     | LVTTL       | 6        | 12*      | SLOW*| NONE**   | NONE      |         | LOCATED   |
 M3     |                          |                 | UNUSED    | LVTTL*      | 6        | 12*      | SLOW*| NONE**   | ***       |         |           |
 M4     | vihd<13>                 |                 | OUTPUT    | LVTTL       | 6        | 12       | SLOW | NONE**   | ***       |         | LOCATED   |
 M5     | vihd<17>                 |                 | OUTPUT    | LVTTL       | 6        | 12       | SLOW | NONE**   | ***       |         | LOCATED   |
 M6     | vihd<16>                 |                 | OUTPUT    | LVTTL       | 6        | 12       | SLOW | NONE**   | ***       |         | LOCATED   |
 M7     |                          | GND             |           | LVTTL*      |          | 12*      | SLOW*| NONE**   | ***       |         |           |
 M9     |                          | GND             |           | LVTTL*      |          | 12*      | SLOW*| NONE**   | ***       |         |           |
 M10    |                          | GND             |           | LVTTL*      |          | 12*      | SLOW*| NONE**   | ***       |         |           |
 M11    |                          | GND             |           | LVTTL*      |          | 12*      | SLOW*| NONE**   | ***       |         |           |
 M12    |                          | GND             |           | LVTTL*      |          | 12*      | SLOW*| NONE**   | ***       |         |           |
 M13    |                          | GND             |           | LVTTL*      |          | 12*      | SLOW*| NONE**   | ***       |         |           |
 M14    |                          | GND             |           | LVTTL*      |          | 12*      | SLOW*| NONE**   | ***       |         |           |
 M16    |                          | GND             |           | LVTTL*      |          | 12*      | SLOW*| NONE**   | ***       |         |           |
 M17    |                          |                 | UNUSED    | LVTTL*      | 3        | 12*      | SLOW*| NONE**   | ***       |         |           |
 M18    | pin25                    |                 | OUTPUT    | LVTTL       | 3        | 12       | SLOW | NONE**   | ***       |         | LOCATED   |
 M19    |                          |                 | UNUSED    | LVTTL*      | 3        | 12*      | SLOW*| NONE**   | ***       |         |           |
 M20    |                          |                 | UNUSED    | LVTTL*      | 3        | 12*      | SLOW*| NONE**   | ***       |         |           |
 M21    |                          |                 | UNUSED    | LVTTL*      | 3        | 12*      | SLOW*| NONE**   | ***       |         |           |
 M22    |                          |                 | UNUSED    | LVTTL*      | 3        | 12*      | SLOW*| NONE**   | ***       |         |           |
 N1     | crc_err                  |                 | INPUT     | LVTTL       | 6        | 12*      | SLOW*| NONE**   | NONE      |         | LOCATED   |
 N2     | exth                     |                 | INPUT     | LVTTL       | 6        | 12*      | SLOW*| NONE**   | NONE      |         | LOCATED   |
 N3     | vihd<12>                 | VREF            | OUTPUT    | LVTTL       | 6        | 12       | SLOW | NONE**   | ***       |         | LOCATED   |
 N4     | vihd<11>                 | L102N           | OUTPUT    | LVTTL       | 6        | 12       | SLOW | NONE**   | ***       |         | LOCATED   |
 N5     | vihd<15>                 |                 | OUTPUT    | LVTTL       | 6        | 12       | SLOW | NONE**   | ***       |         | LOCATED   |
 N6     | vihd<19>                 |                 | OUTPUT    | LVTTL       | 6        | 12       | SLOW | NONE**   | ***       |         | LOCATED   |
 N7     |                          | VCCO_6          |           | LVTTL*      |          | 12*      | SLOW*| NONE**   | ***       | 3.30    |           |
 N9     |                          | GND             |           | LVTTL*      |          | 12*      | SLOW*| NONE**   | ***       |         |           |
 N10    |                          | GND             |           | LVTTL*      |          | 12*      | SLOW*| NONE**   | ***       |         |           |
 N11    |                          | GND             |           | LVTTL*      |          | 12*      | SLOW*| NONE**   | ***       |         |           |
 N12    |                          | GND             |           | LVTTL*      |          | 12*      | SLOW*| NONE**   | ***       |         |           |
 N13    |                          | GND             |           | LVTTL*      |          | 12*      | SLOW*| NONE**   | ***       |         |           |
 N14    |                          | GND             |           | LVTTL*      |          | 12*      | SLOW*| NONE**   | ***       |         |           |
 N16    |                          | VCCO_3          |           | LVTTL*      |          | 12*      | SLOW*| NONE**   | ***       | 3.30    |           |
 N17    |                          | D4_L47P_Y       |           | LVTTL*      | 3        | 12*      | SLOW*| NONE**   | ***       |         |           |
 N18    |                          | VREF            |           | LVTTL*      | 3        | 12*      | SLOW*| NONE**   | ***       |         |           |
 N19    | pin29                    | L48N_YY         | OUTPUT    | LVTTL       | 3        | 12       | SLOW | NONE**   | ***       |         | LOCATED   |
 N20    | pin27                    | L48P_YY         | OUTPUT    | LVTTL       | 3        | 12       | SLOW | NONE**   | ***       |         | LOCATED   |
 N21    | pin30                    |                 | OUTPUT    | LVTTL       | 3        | 12       | SLOW | NONE**   | ***       |         | LOCATED   |
 N22    |                          |                 | UNUSED    | LVTTL*      | 3        | 12*      | SLOW*| NONE**   | ***       |         |           |
 P1     | error                    |                 | INPUT     | LVTTL       | 6        | 12*      | SLOW*| NONE**   | NONE      |         | LOCATED   |
 P2     | operate                  |                 | INPUT     | LVTTL       | 6        | 12*      | SLOW*| NONE**   | NONE      |         | LOCATED   |
 P3     | vihd<10>                 |                 | OUTPUT    | LVTTL       | 6        | 12       | SLOW | NONE**   | ***       |         | LOCATED   |
 P4     | vihd<9>                  |                 | OUTPUT    | LVTTL       | 6        | 12       | SLOW | NONE**   | ***       |         | LOCATED   |
 P5     | vihd<14>                 | L98P_YY         | OUTPUT    | LVTTL       | 6        | 12       | SLOW | NONE**   | ***       |         | LOCATED   |
 P6     | vihd<18>                 | L98N_YY         | OUTPUT    | LVTTL       | 6        | 12       | SLOW | NONE**   | ***       |         | LOCATED   |
 P7     |                          | VCCO_6          |           | LVTTL*      |          | 12*      | SLOW*| NONE**   | ***       | 3.30    |           |
 P9     |                          | GND             |           | LVTTL*      |          | 12*      | SLOW*| NONE**   | ***       |         |           |
 P10    |                          | GND             |           | LVTTL*      |          | 12*      | SLOW*| NONE**   | ***       |         |           |
 P11    |                          | GND             |           | LVTTL*      |          | 12*      | SLOW*| NONE**   | ***       |         |           |
 P12    |                          | GND             |           | LVTTL*      |          | 12*      | SLOW*| NONE**   | ***       |         |           |
 P13    |                          | GND             |           | LVTTL*      |          | 12*      | SLOW*| NONE**   | ***       |         |           |
 P14    |                          | GND             |           | LVTTL*      |          | 12*      | SLOW*| NONE**   | ***       |         |           |
 P16    |                          | VCCO_3          |           | LVTTL*      |          | 12*      | SLOW*| NONE**   | ***       | 3.30    |           |
 P17    |                          |                 | UNUSED    | LVTTL*      | 3        | 12*      | SLOW*| NONE**   | ***       |         |           |
 P18    |                          |                 | UNUSED    | LVTTL*      | 3        | 12*      | SLOW*| NONE**   | ***       |         |           |
 P19    | pin21                    |                 | OUTPUT    | LVTTL       | 3        | 12       | SLOW | NONE**   | ***       |         | LOCATED   |
 P20    | pin23                    |                 | OUTPUT    | LVTTL       | 3        | 12       | SLOW | NONE**   | ***       |         | LOCATED   |
 P21    | pin26                    | L51P_YY         | OUTPUT    | LVTTL       | 3        | 12       | SLOW | NONE**   | ***       |         | LOCATED   |
 P22    | pin28                    | D5_L51N_YY      | OUTPUT    | LVTTL       | 3        | 12       | SLOW | NONE**   | ***       |         | LOCATED   |
 R1     | ao34                     |                 | INPUT     | LVTTL       | 6        | 12*      | SLOW*| NONE**   | NONE      |         | LOCATED   |
 R2     | ao12                     |                 | INPUT     | LVTTL       | 6        | 12*      | SLOW*| NONE**   | NONE      |         | LOCATED   |
 R3     | vihd<8>                  | VREF            | OUTPUT    | LVTTL       | 6        | 12       | SLOW | NONE**   | ***       |         | LOCATED   |
 R4     | vihd<7>                  |                 | OUTPUT    | LVTTL       | 6        | 12       | SLOW | NONE**   | ***       |         | LOCATED   |
 R5     |                          |                 | UNUSED    | LVTTL*      | 6        | 12*      | SLOW*| NONE**   | ***       |         |           |
 R6     |                          | VCCO_6          |           | LVTTL*      |          | 12*      | SLOW*| NONE**   | ***       | 3.30    |           |
 R7     |                          | VCCINT          |           | LVTTL*      |          | 12*      | SLOW*| NONE**   | ***       | 1.8     |           |
 R16    |                          | VCCINT          |           | LVTTL*      |          | 12*      | SLOW*| NONE**   | ***       | 1.8     |           |
 R17    |                          | VCCO_3          |           | LVTTL*      |          | 12*      | SLOW*| NONE**   | ***       | 3.30    |           |
 R18    |                          | VREF            |           | LVTTL*      | 3        | 12*      | SLOW*| NONE**   | ***       |         |           |
 R19    | pin17                    | D6_L52P_Y       | OUTPUT    | LVTTL       | 3        | 12       | SLOW | NONE**   | ***       |         | LOCATED   |
 R20    | pin19                    |                 | OUTPUT    | LVTTL       | 3        | 12       | SLOW | NONE**   | ***       |         | LOCATED   |
 R21    | pin22                    |                 | OUTPUT    | LVTTL       | 3        | 12       | SLOW | NONE**   | ***       |         | LOCATED   |
 R22    | pin24                    |                 | OUTPUT    | LVTTL       | 3        | 12       | SLOW | NONE**   | ***       |         | LOCATED   |
 T1     | ao78                     |                 | INPUT     | LVTTL       | 6        | 12*      | SLOW*| NONE**   | NONE      |         | LOCATED   |
 T2     | ao56                     | L96P            | INPUT     | LVTTL       | 6        | 12*      | SLOW*| NONE**   | NONE      |         | LOCATED   |
 T3     | vihd<6>                  | L96N            | OUTPUT    | LVTTL       | 6        | 12       | SLOW | NONE**   | ***       |         | LOCATED   |
 T4     | vihd<5>                  |                 | OUTPUT    | LVTTL       | 6        | 12       | SLOW | NONE**   | ***       |         | LOCATED   |
 T5     |                          |                 | UNUSED    | LVTTL*      | 6        | 12*      | SLOW*| NONE**   | ***       |         |           |
 T6     |                          | VCCO_6          |           | LVTTL*      |          | 12*      | SLOW*| NONE**   | ***       | 3.30    |           |
 T7     |                          | VCCINT          |           | LVTTL*      |          | 12*      | SLOW*| NONE**   | ***       | 1.8     |           |
 T8     |                          | VCCINT          |           | LVTTL*      |          | 12*      | SLOW*| NONE**   | ***       | 1.8     |           |
 T9     |                          | VCCO_5          |           | LVTTL*      |          | 12*      | SLOW*| NONE**   | ***       | na      |           |
 T10    |                          | VCCO_5          |           | LVTTL*      |          | 12*      | SLOW*| NONE**   | ***       | na      |           |
 T11    |                          | GND             |           | LVTTL*      |          | 12*      | SLOW*| NONE**   | ***       |         |           |
 T12    |                          | GND             |           | LVTTL*      |          | 12*      | SLOW*| NONE**   | ***       |         |           |
 T13    |                          | VCCO_4          |           | LVTTL*      |          | 12*      | SLOW*| NONE**   | ***       | na      |           |
 T14    |                          | VCCO_4          |           | LVTTL*      |          | 12*      | SLOW*| NONE**   | ***       | na      |           |
 T15    |                          | VCCINT          |           | LVTTL*      |          | 12*      | SLOW*| NONE**   | ***       | 1.8     |           |
 T16    |                          | VCCINT          |           | LVTTL*      |          | 12*      | SLOW*| NONE**   | ***       | 1.8     |           |
 T17    |                          | VCCO_3          |           | LVTTL*      |          | 12*      | SLOW*| NONE**   | ***       | 3.30    |           |
 T18    |                          |                 | UNUSED    | LVTTL*      | 3        | 12*      | SLOW*| NONE**   | ***       |         |           |
 T19    | pin13                    |                 | OUTPUT    | LVTTL       | 3        | 12       | SLOW | NONE**   | ***       |         | LOCATED   |
 T20    | pin15                    |                 | OUTPUT    | LVTTL       | 3        | 12       | SLOW | NONE**   | ***       |         | LOCATED   |
 T21    | pin18                    | VREF            | OUTPUT    | LVTTL       | 3        | 12       | SLOW | NONE**   | ***       |         | LOCATED   |
 T22    | pin20                    |                 | OUTPUT    | LVTTL       | 3        | 12       | SLOW | NONE**   | ***       |         | LOCATED   |
 U1     | f_tp3                    | VREF            | INPUT     | LVTTL       | 6        | 12*      | SLOW*| NONE**   | NONE      |         | LOCATED   |
 U2     | f_tp2                    |                 | OUTPUT    | LVTTL       | 6        | 12       | SLOW | NONE**   | ***       |         | LOCATED   |
 U3     | vihd<4>                  |                 | OUTPUT    | LVTTL       | 6        | 12       | SLOW | NONE**   | ***       |         | LOCATED   |
 U4     | vihd<3>                  |                 | OUTPUT    | LVTTL       | 6        | 12       | SLOW | NONE**   | ***       |         | LOCATED   |
 U5     |                          | M1              |           | LVTTL*      |          | 12*      | SLOW*| NONE**   | ***       |         |           |
 U6     |                          | VCCINT          |           | LVTTL*      |          | 12*      | SLOW*| NONE**   | ***       | 1.8     |           |
 U7     |                          | VCCO_5          |           | LVTTL*      |          | 12*      | SLOW*| NONE**   | ***       | na      |           |
 U8     |                          | VCCO_5          |           | LVTTL*      |          | 12*      | SLOW*| NONE**   | ***       | na      |           |
 U9     |                          |                 | UNUSED    | LVTTL*      | 5        | 12*      | SLOW*| NONE**   | ***       |         |           |
 U10    |                          |                 | UNUSED    | LVTTL*      | 5        | 12*      | SLOW*| NONE**   | ***       |         |           |
 U11    |                          |                 | UNUSED    | LVTTL*      | 5        | 12*      | SLOW*| NONE**   | ***       |         |           |
 U12    |                          |                 | UNUSED    | LVTTL*      | 4        | 12*      | SLOW*| NONE**   | ***       |         |           |
 U13    |                          |                 | UNUSED    | LVTTL*      | 4        | 12*      | SLOW*| NONE**   | ***       |         |           |
 U14    |                          | L69N            |           | LVTTL*      | 4        | 12*      | SLOW*| NONE**   | ***       |         |           |
 U15    |                          | VCCO_4          |           | LVTTL*      |          | 12*      | SLOW*| NONE**   | ***       | na      |           |
 U16    |                          | VCCO_4          |           | LVTTL*      |          | 12*      | SLOW*| NONE**   | ***       | na      |           |
 U17    |                          | VCCINT          |           | LVTTL*      |          | 12*      | SLOW*| NONE**   | ***       | 1.8     |           |
 U18    |                          |                 | UNUSED    | LVTTL*      | 3        | 12*      | SLOW*| NONE**   | ***       |         |           |
 U19    | pin9                     |                 | OUTPUT    | LVTTL       | 3        | 12       | SLOW | NONE**   | ***       |         | LOCATED   |
 U20    | pin11                    |                 | OUTPUT    | LVTTL       | 3        | 12       | SLOW | NONE**   | ***       |         | LOCATED   |
 U21    | pin14                    |                 | OUTPUT    | LVTTL       | 3        | 12       | SLOW | NONE**   | ***       |         | LOCATED   |
 U22    | pin16                    |                 | OUTPUT    | LVTTL       | 3        | 12       | SLOW | NONE**   | ***       |         | LOCATED   |
 V1     |                          |                 | UNUSED    | LVTTL*      | 6        | 12*      | SLOW*| NONE**   | ***       |         |           |
 V2     |                          | VREF            |           | LVTTL*      | 6        | 12*      | SLOW*| NONE**   | ***       |         |           |
 V3     | vihd<2>                  |                 | OUTPUT    | LVTTL       | 6        | 12       | SLOW | NONE**   | ***       |         | LOCATED   |
 V4     | vihd<1>                  |                 | OUTPUT    | LVTTL       | 6        | 12       | SLOW | NONE**   | ***       |         | LOCATED   |
 V5     |                          | VCCINT          |           | LVTTL*      |          | 12*      | SLOW*| NONE**   | ***       | 1.8     |           |
 V6     |                          | L86N_YY         |           | LVTTL*      | 5        | 12*      | SLOW*| NONE**   | ***       |         |           |
 V7     |                          |                 | UNUSED    | LVTTL*      | 5        | 12*      | SLOW*| NONE**   | ***       |         |           |
 V8     |                          | VREF            |           | LVTTL*      | 5        | 12*      | SLOW*| NONE**   | ***       |         |           |
 V9     |                          |                 | UNUSED    | LVTTL*      | 5        | 12*      | SLOW*| NONE**   | ***       |         |           |
 V10    |                          | VREF            |           | LVTTL*      | 5        | 12*      | SLOW*| NONE**   | ***       |         |           |
 V11    |                          |                 | UNUSED    | LVTTL*      | 5        | 12*      | SLOW*| NONE**   | ***       |         |           |
 V12    |                          |                 | UNUSED    | LVTTL*      | 4        | 12*      | SLOW*| NONE**   | ***       |         |           |
 V13    |                          | VREF            |           | LVTTL*      | 4        | 12*      | SLOW*| NONE**   | ***       |         |           |
 V14    |                          | L69P            |           | LVTTL*      | 4        | 12*      | SLOW*| NONE**   | ***       |         |           |
 V15    |                          | VREF            |           | LVTTL*      | 4        | 12*      | SLOW*| NONE**   | ***       |         |           |
 V16    |                          | L65P            |           | LVTTL*      | 4        | 12*      | SLOW*| NONE**   | ***       |         |           |
 V17    |                          | L63P            |           | LVTTL*      | 4        | 12*      | SLOW*| NONE**   | ***       |         |           |
 V18    |                          | VCCINT          |           | LVTTL*      |          | 12*      | SLOW*| NONE**   | ***       | 1.8     |           |
 V19    | pin5                     |                 | OUTPUT    | LVTTL       | 3        | 12       | SLOW | NONE**   | ***       |         | LOCATED   |
 V20    | pin7                     |                 | OUTPUT    | LVTTL       | 3        | 12       | SLOW | NONE**   | ***       |         | LOCATED   |
 V21    | pin10                    |                 | OUTPUT    | LVTTL       | 3        | 12       | SLOW | NONE**   | ***       |         | LOCATED   |
 V22    | pin12                    | VREF            | OUTPUT    | LVTTL       | 3        | 12       | SLOW | NONE**   | ***       |         | LOCATED   |
 W1     |                          |                 | UNUSED    | LVTTL*      | 6        | 12*      | SLOW*| NONE**   | ***       |         |           |
 W2     |                          |                 | UNUSED    | LVTTL*      | 6        | 12*      | SLOW*| NONE**   | ***       |         |           |
 W3     | vihd<0>                  | L90N_YY         | OUTPUT    | LVTTL       | 6        | 12       | SLOW | NONE**   | ***       |         | LOCATED   |
 W4     |                          | NC              |           | LVTTL*      |          | 12*      | SLOW*| NONE**   | ***       |         |           |
 W5     |                          |                 | UNUSED    | LVTTL*      | 5        | 12*      | SLOW*| NONE**   | ***       |         |           |
 W6     |                          | L86P_YY         |           | LVTTL*      | 5        | 12*      | SLOW*| NONE**   | ***       |         |           |
 W7     |                          |                 | UNUSED    | LVTTL*      | 5        | 12*      | SLOW*| NONE**   | ***       |         |           |
 W8     |                          |                 | UNUSED    | LVTTL*      | 5        | 12*      | SLOW*| NONE**   | ***       |         |           |
 W9     |                          |                 | UNUSED    | LVTTL*      | 5        | 12*      | SLOW*| NONE**   | ***       |         |           |
 W10    |                          |                 | UNUSED    | LVTTL*      | 5        | 12*      | SLOW*| NONE**   | ***       |         |           |
 W11    |                          | L76N            |           | LVTTL*      | 5        | 12*      | SLOW*| NONE**   | ***       |         |           |
 W12    |                          |                 | UNUSED    | LVTTL*      | 4        | 12*      | SLOW*| NONE**   | ***       |         |           |
 W13    |                          |                 | UNUSED    | LVTTL*      | 4        | 12*      | SLOW*| NONE**   | ***       |         |           |
 W14    |                          | L70P            |           | LVTTL*      | 4        | 12*      | SLOW*| NONE**   | ***       |         |           |
 W15    |                          |                 | UNUSED    | LVTTL*      | 4        | 12*      | SLOW*| NONE**   | ***       |         |           |
 W16    |                          | L65N            |           | LVTTL*      | 4        | 12*      | SLOW*| NONE**   | ***       |         |           |
 W17    |                          | L63N            |           | LVTTL*      | 4        | 12*      | SLOW*| NONE**   | ***       |         |           |
 W18    |                          | VREF            |           | LVTTL*      | 4        | 12*      | SLOW*| NONE**   | ***       |         |           |
 W19    |                          | NC              |           | LVTTL*      |          | 12*      | SLOW*| NONE**   | ***       |         |           |
 W20    |                          | DONE            |           | LVTTL*      |          | 12*      | SLOW*| NONE**   | ***       |         |           |
 W21    |                          | INIT_L59N_YY    |           | LVTTL*      | 3        | 12*      | SLOW*| NONE**   | ***       |         |           |
 W22    | pin8                     |                 | OUTPUT    | LVTTL       | 3        | 12       | SLOW | NONE**   | ***       |         | LOCATED   |
 Y1     | f_tp1                    |                 | OUTPUT    | LVTTL       | 6        | 12       | SLOW | NONE**   | ***       |         | LOCATED   |
 Y2     | video<0>                 | L90P_YY         | INPUT     | LVTTL       | 6        | 12*      | SLOW*| NONE**   | NONE      |         |           |
 Y3     |                          | GND             |           | LVTTL*      |          | 12*      | SLOW*| NONE**   | ***       |         |           |
 Y4     |                          | NC              |           | LVTTL*      |          | 12*      | SLOW*| NONE**   | ***       |         |           |
 Y5     |                          |                 | UNUSED    | LVTTL*      | 5        | 12*      | SLOW*| NONE**   | ***       |         |           |
 Y6     |                          |                 | UNUSED    | LVTTL*      | 5        | 12*      | SLOW*| NONE**   | ***       |         |           |
 Y7     |                          |                 | UNUSED    | LVTTL*      | 5        | 12*      | SLOW*| NONE**   | ***       |         |           |
 Y8     |                          |                 | UNUSED    | LVTTL*      | 5        | 12*      | SLOW*| NONE**   | ***       |         |           |
 Y9     |                          |                 | UNUSED    | LVTTL*      | 5        | 12*      | SLOW*| NONE**   | ***       |         |           |
 Y10    |                          |                 | UNUSED    | LVTTL*      | 5        | 12*      | SLOW*| NONE**   | ***       |         |           |
 Y11    |                          | L76P            |           | LVTTL*      | 5        | 12*      | SLOW*| NONE**   | ***       |         |           |
 Y12    |                          | LVDS_DLL_L75P   |           | LVTTL*      | 4        | 12*      | SLOW*| NONE**   | ***       |         |           |
 Y13    |                          |                 | UNUSED    | LVTTL*      | 4        | 12*      | SLOW*| NONE**   | ***       |         |           |
 Y14    |                          | L70N            |           | LVTTL*      | 4        | 12*      | SLOW*| NONE**   | ***       |         |           |
 Y15    |                          |                 | UNUSED    | LVTTL*      | 4        | 12*      | SLOW*| NONE**   | ***       |         |           |
 Y16    |                          | L66P            |           | LVTTL*      | 4        | 12*      | SLOW*| NONE**   | ***       |         |           |
 Y17    |                          | VREF            |           | LVTTL*      | 4        | 12*      | SLOW*| NONE**   | ***       |         |           |
 Y18    |                          |                 | UNUSED    | LVTTL*      | 4        | 12*      | SLOW*| NONE**   | ***       |         |           |
 Y19    |                          | L61P            |           | LVTTL*      | 4        | 12*      | SLOW*| NONE**   | ***       |         |           |
 Y20    |                          | GND             |           | LVTTL*      |          | 12*      | SLOW*| NONE**   | ***       |         |           |
 Y21    |                          | PROGRAM         |           | LVTTL*      |          | 12*      | SLOW*| NONE**   | ***       |         |           |
 Y22    | pin6                     | D7_L59P_YY      | OUTPUT    | LVTTL       | 3        | 12       | SLOW | NONE**   | ***       |         | LOCATED   |
--------|--------------------------|-----------------|-----------|-------------|----------|----------|------|----------|-----------|---------|-----------|

* Default value.
** This default Pullup/Pulldown value can be overridden in Bitgen.
*** The default IOB Delay is determined by how the IOB is used.


#
# To preserve the pinout above for future design iterations,
# simply invoke PIN2UCF from the command line or issue this command in the GUI.
# For Foundation ISE/Project Navigator - Run the process "Implement Design" -> "Place-and-Route" -> "Back-annotate Pin Locations"
# For Design Manager - In the Design menu select "Lock Pins...
# The location constraints above will be written into your specified UCF file. (The constraints
# listed below are in PCF format and cannot be directly used in the UCF file).
#
COMP "ao12" LOCATE = SITE "R2" ; 
COMP "ao34" LOCATE = SITE "R1" ; 
COMP "ao56" LOCATE = SITE "T2" ; 
COMP "ao78" LOCATE = SITE "T1" ; 
COMP "aouta" LOCATE = SITE "F9" ; 
COMP "aoutb" LOCATE = SITE "F10" ; 
COMP "buferr" LOCATE = SITE "J6" ; 
COMP "crc_err" LOCATE = SITE "N1" ; 
COMP "cs_f" LOCATE = SITE "B20" ; 
COMP "din<0>" LOCATE = SITE "A12" ; 
COMP "din<10>" LOCATE = SITE "A17" ; 
COMP "din<11>" LOCATE = SITE "B17" ; 
COMP "din<12>" LOCATE = SITE "A18" ; 
COMP "din<13>" LOCATE = SITE "B18" ; 
COMP "din<14>" LOCATE = SITE "A19" ; 
COMP "din<15>" LOCATE = SITE "B19" ; 
COMP "din<16>" LOCATE = SITE "A20" ; 
COMP "din<17>" LOCATE = SITE "C12" ; 
COMP "din<18>" LOCATE = SITE "F13" ; 
COMP "din<19>" LOCATE = SITE "F14" ; 
COMP "din<1>" LOCATE = SITE "B12" ; 
COMP "din<2>" LOCATE = SITE "A13" ; 
COMP "din<3>" LOCATE = SITE "B13" ; 
COMP "din<4>" LOCATE = SITE "A14" ; 
COMP "din<5>" LOCATE = SITE "B14" ; 
COMP "din<6>" LOCATE = SITE "A15" ; 
COMP "din<7>" LOCATE = SITE "B15" ; 
COMP "din<8>" LOCATE = SITE "A16" ; 
COMP "din<9>" LOCATE = SITE "B16" ; 
COMP "error" LOCATE = SITE "P1" ; 
COMP "extf" LOCATE = SITE "M1" ; 
COMP "exth" LOCATE = SITE "N2" ; 
COMP "f1532" LOCATE = SITE "C9" ; 
COMP "f1560" LOCATE = SITE "C5" ; 
COMP "f_tp1" LOCATE = SITE "Y1" ; 
COMP "f_tp2" LOCATE = SITE "U2" ; 
COMP "f_tp3" LOCATE = SITE "U1" ; 
COMP "h1532" LOCATE = SITE "C10" ; 
COMP "h1560" LOCATE = SITE "C6" ; 
COMP "lock1560" LOCATE = SITE "D9" ; 
COMP "operate" LOCATE = SITE "P2" ; 
COMP "pclk1532" LOCATE = SITE "B11" ; 
COMP "pclk1560" LOCATE = SITE "C11" ; 
COMP "pclkhd" LOCATE = SITE "K6" ; 
COMP "pclksd" LOCATE = SITE "E7" ; 
COMP "pin10" LOCATE = SITE "V21" ; 
COMP "pin11" LOCATE = SITE "U20" ; 
COMP "pin12" LOCATE = SITE "V22" ; 
COMP "pin13" LOCATE = SITE "T19" ; 
COMP "pin14" LOCATE = SITE "U21" ; 
COMP "pin15" LOCATE = SITE "T20" ; 
COMP "pin16" LOCATE = SITE "U22" ; 
COMP "pin17" LOCATE = SITE "R19" ; 
COMP "pin18" LOCATE = SITE "T21" ; 
COMP "pin19" LOCATE = SITE "R20" ; 
COMP "pin20" LOCATE = SITE "T22" ; 
COMP "pin21" LOCATE = SITE "P19" ; 
COMP "pin22" LOCATE = SITE "R21" ; 
COMP "pin23" LOCATE = SITE "P20" ; 
COMP "pin24" LOCATE = SITE "R22" ; 
COMP "pin25" LOCATE = SITE "M18" ; 
COMP "pin26" LOCATE = SITE "P21" ; 
COMP "pin27" LOCATE = SITE "N20" ; 
COMP "pin28" LOCATE = SITE "P22" ; 
COMP "pin29" LOCATE = SITE "N19" ; 
COMP "pin30" LOCATE = SITE "N21" ; 
COMP "pin5" LOCATE = SITE "V19" ; 
COMP "pin6" LOCATE = SITE "Y22" ; 
COMP "pin7" LOCATE = SITE "V20" ; 
COMP "pin74" LOCATE = SITE "C21" ; 
COMP "pin8" LOCATE = SITE "W22" ; 
COMP "pin9" LOCATE = SITE "U19" ; 
COMP "v1532" LOCATE = SITE "D10" ; 
COMP "v1560" LOCATE = SITE "D6" ; 
COMP "vid_det" LOCATE = SITE "M2" ; 
COMP "video<0>" LOCATE = SITE "Y2" ; 
COMP "video<10>" LOCATE = SITE "B7" ; 
COMP "video<11>" LOCATE = SITE "A8" ; 
COMP "video<12>" LOCATE = SITE "B8" ; 
COMP "video<13>" LOCATE = SITE "A9" ; 
COMP "video<14>" LOCATE = SITE "B9" ; 
COMP "video<15>" LOCATE = SITE "A10" ; 
COMP "video<16>" LOCATE = SITE "D7" ; 
COMP "video<17>" LOCATE = SITE "C7" ; 
COMP "video<18>" LOCATE = SITE "D8" ; 
COMP "video<19>" LOCATE = SITE "C8" ; 
COMP "video<1>" LOCATE = SITE "A3" ; 
COMP "video<2>" LOCATE = SITE "B3" ; 
COMP "video<3>" LOCATE = SITE "A4" ; 
COMP "video<4>" LOCATE = SITE "B4" ; 
COMP "video<5>" LOCATE = SITE "A5" ; 
COMP "video<6>" LOCATE = SITE "B5" ; 
COMP "video<7>" LOCATE = SITE "A6" ; 
COMP "video<8>" LOCATE = SITE "B6" ; 
COMP "video<9>" LOCATE = SITE "A7" ; 
COMP "vihd<0>" LOCATE = SITE "W3" ; 
COMP "vihd<10>" LOCATE = SITE "P3" ; 
COMP "vihd<11>" LOCATE = SITE "N4" ; 
COMP "vihd<12>" LOCATE = SITE "N3" ; 
COMP "vihd<13>" LOCATE = SITE "M4" ; 
COMP "vihd<14>" LOCATE = SITE "P5" ; 
COMP "vihd<15>" LOCATE = SITE "N5" ; 
COMP "vihd<16>" LOCATE = SITE "M6" ; 
COMP "vihd<17>" LOCATE = SITE "M5" ; 
COMP "vihd<18>" LOCATE = SITE "P6" ; 
COMP "vihd<19>" LOCATE = SITE "N6" ; 
COMP "vihd<1>" LOCATE = SITE "V4" ; 
COMP "vihd<2>" LOCATE = SITE "V3" ; 
COMP "vihd<3>" LOCATE = SITE "U4" ; 
COMP "vihd<4>" LOCATE = SITE "U3" ; 
COMP "vihd<5>" LOCATE = SITE "T4" ; 
COMP "vihd<6>" LOCATE = SITE "T3" ; 
COMP "vihd<7>" LOCATE = SITE "R4" ; 
COMP "vihd<8>" LOCATE = SITE "R3" ; 
COMP "vihd<9>" LOCATE = SITE "P4" ; 
#
