
**** 05/18/07 11:29:43 ******** PSpice Lite (July 2006) ******* ID# 10813 ****

 ** Profile: "SCHEMATIC1-gain"  [ X:\JKH\gain-test\gain-test-PSpiceFiles\SCHEMATIC1\gain.sim ] 


 ****     CIRCUIT DESCRIPTION


******************************************************************************




** Creating circuit file "gain.cir" 
** WARNING: THIS AUTOMATICALLY GENERATED FILE MAY BE OVERWRITTEN BY SUBSEQUENT SIMULATIONS

*Libraries: 
* Profile Libraries :
* Local Libraries :
* From [PSPICE NETLIST] section of C:\OrCAD\OrCAD_15.7_Demo\tools\PSpice\PSpice.ini file:
.lib "nom.lib" 

*Analysis directives: 
.DC LIN V_V2 0 2.5 0.5 
.PROBE V(alias(*)) I(alias(*)) W(alias(*)) D(alias(*)) NOISE(alias(*)) 
.INC "..\SCHEMATIC1.net" 



**** INCLUDING SCHEMATIC1.net ****
* source GAIN-TEST
X_U2         N00152 VIN N00298 0 VOUT uA741
R_R1         N00152 VOUT  500  
V_V2         VIN 0 2.5Vdc
V_V1         N00298 0 3.3Vdc
R_R2         0 VIN  1k  

**** RESUMING gain.cir ****
.END

**** 05/18/07 11:29:43 ******** PSpice Lite (July 2006) ******* ID# 10813 ****

 ** Profile: "SCHEMATIC1-gain"  [ X:\JKH\gain-test\gain-test-PSpiceFiles\SCHEMATIC1\gain.sim ] 


 ****     Diode MODEL PARAMETERS


******************************************************************************




               X_U2.dx         
          IS  800.000000E-18 
          RS    1            


**** 05/18/07 11:29:43 ******** PSpice Lite (July 2006) ******* ID# 10813 ****

 ** Profile: "SCHEMATIC1-gain"  [ X:\JKH\gain-test\gain-test-PSpiceFiles\SCHEMATIC1\gain.sim ] 


 ****     BJT MODEL PARAMETERS


******************************************************************************




               X_U2.qx         
               NPN             
       LEVEL    1            
          IS  800.000000E-18 
          BF   93.75         
          NF    1            
          BR    1            
          NR    1            
         ISS    0            
          RE    0            
          RC    0            
         CJE    0            
         VJE     .75         
         CJC    0            
         VJC     .75         
         MJC     .33         
        XCJC    1            
         CJS    0            
         VJS     .75         
          KF    0            
          AF    1            
          CN    2.42         
           D     .87         



          JOB CONCLUDED

**** 05/18/07 11:29:43 ******** PSpice Lite (July 2006) ******* ID# 10813 ****

 ** Profile: "SCHEMATIC1-gain"  [ X:\JKH\gain-test\gain-test-PSpiceFiles\SCHEMATIC1\gain.sim ] 


 ****     JOB STATISTICS SUMMARY


******************************************************************************



  Total job time (using Solver 1)   =       41.43
