
**** 05/31/07 12:51:57 ******** PSpice Lite (July 2006) ******* ID# 10813 ****

 ** Profile: "SCHEMATIC1-freq_response"  [ X:\JKH\LTC_filter\LTC_FILTER_TEST-PSpiceFiles\SCHEMATIC1\freq_response.sim ] 


 ****     CIRCUIT DESCRIPTION


******************************************************************************




** Creating circuit file "freq_response.cir" 
** WARNING: THIS AUTOMATICALLY GENERATED FILE MAY BE OVERWRITTEN BY SUBSEQUENT SIMULATIONS

*Libraries: 
* Profile Libraries :
* Local Libraries :
* From [PSPICE NETLIST] section of C:\OrCAD\OrCAD_15.7_Demo\tools\PSpice\PSpice.ini file:
.lib "nom.lib" 

*Analysis directives: 
.AC DEC 10 10 20000
.PROBE V(alias(*)) I(alias(*)) W(alias(*)) D(alias(*)) NOISE(alias(*)) 
.INC "..\SCHEMATIC1.net" 



**** INCLUDING SCHEMATIC1.net ****
* source LTC_FILTER_TEST
C_C2         OUT N00496  1n  
V_V1         IN 0 DC 0Vdc AC 3.3Vac 
X_U1         N00511 OUT N00205 N00199 OUT uA741
V_V2         N00205 0 5Vdc
V_V3         0 N00199 5Vdc
C_C1         0 N00511  1n  

**** RESUMING freq_response.cir ****
.END

ERROR -- Less than 2 connections at node N00496
ERROR -- Node N00496 is floating